testData/IEEE300/IEEE300Bus_modified_noHVDC_v23_reduce3bigloads.raw
0  100.000
 00/00/01                      100.0  0    0                
 0                                                          
      1, 1,     0.000,     0.000,  0.000000,  0.000000,   1,1.027570, 2.304701,'1       ',115.0000,   1
      2, 1,     0.000,     0.000,  0.000000,  0.000000,   1,1.033840, 4.144201,'2       ',115.0000,   1
      3, 1,    20.000,     0.000,  0.000000,  0.000000,   1,0.994860, 2.992101,'3       ',230.0000,   1
      4, 1,     0.000,     0.000,  0.000000,  0.000000,   1,1.027930, 1.123400,'4       ',345.0000,   1
      5, 1,     0.000,     0.000,  0.000000,  0.000000,   1,1.018580, 1.034500,'5       ',115.0000,   1
      6, 1,     0.000,     0.000,  0.000000,  0.000000,   1,1.029370, 3.382102,'6       ',115.0000,   1
      7, 1,     0.000,     0.000,  0.000000,  0.000000,   1,0.991370, 2.523001,'7       ',230.0000,   1
      8, 1,     0.000,     0.000,  0.000000,  0.000000,   1,1.014360,-1.148700,'8       ',115.0000,   1
      9, 1,     0.000,     0.000,  0.000000,  0.000000,   1,1.002800,-0.779000,'9       ',115.0000,   1
     10, 1,    -0.071,    -0.652,  0.000000,  0.000000,   1,1.018870,-2.302201,'10      ',230.0000,   1
     11, 1,     0.000,     0.000,  0.000000,  0.000000,   1,1.005010,-1.150900,'11      ',115.0000,   1
     12, 1,     0.000,     0.000,  0.000000,  0.000000,   1,0.995880, 1.563501,'12      ',230.0000,   1
     13, 1,     0.000,     0.000,  0.000000,  0.000000,   1,0.997310,-4.179902,'13      ',115.0000,   1
     14, 1,     0.000,     0.000,  0.000000,  0.000000,   1,0.998740,-8.225403,'14      ',115.0000,   1
     15, 1,     0.000,     0.000,  0.000000,  0.000000,   1,1.033540,-11.850104,'15      ',115.0000,   1
     16, 1,     0.000,     0.000,  0.000000,  0.000000,   1,1.030350,-5.993602,'16      ',345.0000,   1
     17, 1,     0.000,     0.000,  0.000000,  0.000000,   1,1.065240,-16.408306,'17      ',115.0000,   1
     19, 1,     0.000,     0.000,  0.000000,  0.000000,   1,0.981130,-2.521001,'19      ',230.0000,   1
     20, 1,     0.821,     0.810,  0.000000,  0.000000,   1,1.001030,-6.097802,'20      ',115.0000,   1
     21, 1,     0.000,     0.000,  0.000000,  0.000000,   1,0.974480,-2.014001,'21      ',230.0000,   1
     22, 1,     0.000,     0.000,  0.000000,  0.000000,   1,0.996130,-5.608202,'22      ',115.0000,   1
     23, 1,     0.000,     0.000,  0.000000,  0.000000,   1,1.049540, 0.311200,'23      ',115.0000,   1
     24, 1,     0.000,     0.000,  0.000000,  0.000000,   1,1.005110, 2.392501,'24      ',230.0000,   1
     25, 1,     0.000,     0.000,  0.000000,  0.000000,   1,1.022630,-2.185201,'25      ',115.0000,   1
     26, 1,     0.000,     0.000,  0.000000,  0.000000,   1,0.997710,-5.358302,'26      ',115.0000,   1
     27, 1,     0.000,     0.000,  0.000000,  0.000000,   1,0.974330,-8.525303,'27      ',115.0000,   1
     33, 1,     0.000,     0.000,  0.000000,  0.000000,   1,1.021490,-14.696707,'33      ',115.0000,   1
     34, 1,     0.000,     0.000,  0.000000,  0.000000,   1,1.039970,-10.993404,'34      ',345.0000,   1
     35, 1,     0.000,     0.000,  0.000000,  0.000000,   1,0.975210,-29.149313,'35      ',115.0000,   1
     36, 1,     0.000,     0.000,  0.000000,  0.000000,   1,1.000910,-26.012209,'36      ',230.0000,   1
     37, 1,    -0.056,     1.154,  0.000000,  0.000000,   1,1.017310,-13.585606,'37      ',115.0000,   1
     38, 1,     0.000,     0.000,  0.000000,  0.000000,   1,1.017340,-15.205206,'38      ',115.0000,   1
     39, 1,     0.000,     0.000,  0.000000,  0.000000,   1,1.052140,-8.911903,'39      ',345.0000,   1
     40, 1,     0.000,     0.000,  0.000000,  0.000000,   1,1.018540,-15.395806,'40      ',115.0000,   1
     41, 1,    86.000,     0.000,  0.000000,  0.000000,   1,1.025600,-13.017006,'41      ',115.0000,   1
     42, 1,     0.000,     0.000,  0.000000,  0.000000,   1,1.043490,-10.550105,'42      ',345.0000,   1
     43, 1,     0.000,     0.000,  0.000000,  0.000000,   1,0.998830,-19.931507,'43      ',115.0000,   1
     44, 1,     0.000,     0.000,  0.000000,  0.000000,   1,1.008360,-20.946108,'44      ',115.0000,   1
     45, 1,     0.000,     0.000,  0.000000,  0.000000,   1,1.022160,-18.323008,'45      ',230.0000,   1
     46, 1,     0.000,     0.000,  0.000000,  0.000000,   1,1.033370,-15.070107,'46      ',345.0000,   1
     47, 1,     0.000,     0.000,  0.000000,  0.000000,   1,0.977570,-26.610012,'47      ',115.0000,   1
     48, 1,     0.000,     0.000,  0.000000,  0.000000,   1,1.000300,-19.021208,'48      ',115.0000,   1
     49, 1,     0.000,     0.000,  0.000000,  0.000000,   1,1.046870,-3.327401,'49      ',115.0000,   1
     51, 1,    -5.000,     5.000,  0.000000,  0.000000,   1,1.021460,-9.988503,'51      ',115.0000,   1
     52, 1,     0.000,     0.000,  0.000000,  0.000000,   1,0.994670,-14.579005,'52      ',115.0000,   1
     53, 1,     0.000,     0.000,  0.000000,  0.000000,   1,0.994290,-20.820410,'53      ',115.0000,   1
     54, 1,     0.000,     0.000,  0.000000,  0.000000,   1,1.003860,-19.595108,'54      ',115.0000,   1
     55, 1,     0.000,     0.000,  0.000000,  0.000000,   1,1.013550,-15.565705,'55      ',115.0000,   1
     57, 1,     0.000,     0.000,  0.000000,  0.000000,   1,1.033190,-12.697305,'57      ',115.0000,   1
     58, 1,     0.000,     0.000,  0.000000,  0.000000,   1,0.991180,-11.282405,'58      ',115.0000,   1
     59, 1,     0.000,     0.000,  0.000000,  0.000000,   1,0.978620,-10.761704,'59      ',115.0000,   1
     60, 1,     0.000,     0.000,  0.000000,  0.000000,   1,1.027130,-14.034205,'60      ',230.0000,   1
     61, 1,     0.000,     0.000,  0.000000,  0.000000,   1,0.990340,-9.023004,'61      ',115.0000,   1
     62, 1,     0.000,     0.000,  0.000000,  0.000000,   1,1.016730,-6.994203,'62      ',230.0000,   1
     63, 1,     0.000,     0.000,  0.000000,  0.000000,   1,0.958040,-23.257910,'63      ',115.0000,   1
     64, 1,     0.000,     0.000,  0.000000,  0.000000,   1,0.949010,-18.676008,'64      ',230.0000,   1
     69, 1,     0.000,     0.000,  0.000000,  0.000000,   1,0.962110,-29.063414,'69      ',115.0000,   1
     70, 1,     0.000,     0.000,  0.000000,  0.000000,   1,0.950100,-38.591515,'70      ',115.0000,   1
     71, 1,     0.000,     0.000,  0.000000,  0.000000,   1,0.978740,-33.312511,'71      ',115.0000,   1
     72, 1,     0.000,     0.000,  0.000000,  0.000000,   1,0.968910,-30.903214,'72      ',115.0000,   1
     73, 1,     0.000,     0.000,  0.000000,  0.000000,   1,0.977670,-29.218212,'73      ',115.0000,   1
     74, 1,     0.000,     0.000,  0.000000,  0.000000,   1,0.996630,-25.463409,'74      ',230.0000,   1
     76, 1,     0.000,     0.000,  0.000000,  0.000000,   1,0.962870,-29.972412,'76      ',115.0000,   1
     77, 1,     0.000,     0.000,  0.000000,  0.000000,   1,0.983080,-28.360811,'77      ',115.0000,   1
     78, 1,     0.000,     0.000,  0.000000,  0.000000,   1,0.989260,-27.468712,'78      ',115.0000,   1
     79, 1,     0.000,     0.000,  0.000000,  0.000000,   1,0.981430,-28.397112,'79      ',115.0000,   1
     80, 1,     0.000,     0.000,  0.000000,  0.000000,   1,0.986320,-28.378212,'80      ',115.0000,   1
     81, 1,     0.000,     0.000,  0.000000,  0.000000,   1,1.033750,-22.269709,'81      ',345.0000,   1
     84, 1,     0.000,     0.000,  0.000000,  0.000000,   1,1.023710,-20.567808,'84      ',115.0000,   1
     85, 1,     0.000,     0.000,  0.000000,  0.000000,   1,0.987080,-20.883108,'85      ',230.0000,   1
     86, 1,     0.000,     0.000,  0.000000,  0.000000,   1,0.990850,-17.429508,'86      ',230.0000,   1
     87, 1,     0.000,     0.000,  0.000000,  0.000000,   1,0.991780,-11.155105,'87      ',230.0000,   1
     88, 1,     0.000,     0.000,  0.000000,  0.000000,   1,1.015060,-24.375809,'88      ',230.0000,   1
     89, 1,    44.200,     0.000,  0.000000,  0.000000,   1,1.030680,-14.111906,'89      ',115.0000,   1
     90, 1,    66.000,     0.000,  0.000000,  0.000000,   1,1.025400,-13.966905,'90      ',115.0000,   1
     91, 1,    17.400,     0.000,  0.000000,  0.000000,   1,1.051580,-12.524005,'91      ',115.0000,   1
     92, 1,    15.800,     0.000,  0.000000,  0.000000,   1,1.051690,-9.148304,'92      ',115.0000,   1
     94, 1,    60.300,     0.000,  0.000000,  0.000000,   1,0.993200,-12.758904,'94      ',115.0000,   1
     97, 1,    39.900,     0.000,  0.000000,  0.000000,   1,1.018030,-16.388708,'97      ',115.0000,   1
     98, 1,    66.700,     0.000,  0.000000,  0.000000,   1,1.000100,-17.799109,'98      ',115.0000,   1
     99, 1,    83.500,     0.000,  0.000000,  0.000000,   1,0.989100,-23.447910,'99      ',115.0000,   1
    100, 1,     0.000,     0.000,  0.000000,  0.000000,   1,1.005870,-17.628908,'100     ',115.0000,   1
    102, 1,    77.800,     0.000,  0.000000,  0.000000,   1,1.000540,-18.430008,'102     ',115.0000,   1
    103, 1,    32.000,     0.000,  0.000000,  0.000000,   1,1.028400,-15.096106,'103     ',115.0000,   1
    104, 1,     8.600,     0.000,  0.000000,  0.000000,   1,0.995570,-20.517408,'104     ',115.0000,   1
    105, 1,    49.600,     0.000,  0.000000,  0.000000,   1,1.021700,-15.952306,'105     ',115.0000,   1
    107, 1,     4.600,     0.000,  0.000000,  0.000000,   1,1.008430,-19.037508,'107     ',115.0000,   1
    108, 1,   112.100,     0.000,  0.000000,  0.000000,   1,0.989780,-23.438309,'108     ',115.0000,   1
    109, 1,    30.700,     0.000,  0.000000,  0.000000,   1,0.974500,-29.318712,'109     ',115.0000,   1
    110, 1,    63.000,     0.000,  0.000000,  0.000000,   1,0.972470,-27.913912,'110     ',115.0000,   1
    112, 1,    19.600,     0.000,  0.000000,  0.000000,   1,0.972150,-31.960514,'112     ',115.0000,   1
    113, 1,    26.200,     0.000,  0.000000,  0.000000,   1,0.969780,-28.768812,'113     ',115.0000,   1
    114, 1,    18.200,     0.000,  0.000000,  0.000000,   1,0.974310,-31.862511,'114     ',115.0000,   1
    115, 1,     0.000,     0.000,  0.000000,  0.000000,   2,0.942850, 2.297601,'115     ',115.0000,   2
    116, 1,     0.000,     0.000,  0.000000,  0.000000,   2,1.008860, 8.837904,'116     ',115.0000,   2
    117, 1,     0.086,  -281.932,  0.000000,  0.000000,   2,0.931310,14.842907,'117     ',115.0000,   2
    118, 1,     0.095,     1.032,  0.000000,  0.000000,   2,0.925560,15.873507,'118     ',115.0000,   2
    119, 1,     0.000,     0.000,  0.000000,  0.000000,   2,1.032860,29.756111,'119     ',115.0000,   2
    120, 1,    -0.001,   -56.185,  0.000000,  0.000000,   2,1.010670,25.312809,'120     ',115.0000,   2
    121, 1,     0.000,     0.000,  0.000000,  0.000000,   2,0.871270, 5.128602,'121     ',115.0000,   2
    122, 1,     0.000,     0.000,  0.000000,  0.000000,   2,0.920090, 0.374200,'122     ',115.0000,   2
    123, 1,     0.000,     0.000,  0.000000,  0.000000,   2,0.953020,-4.110202,'123     ',115.0000,   2
    124, 1,     0.077,     0.959,  0.000000,  0.000000,   2,0.993380, 5.945302,'124     ',115.0000,   2
    125, 1,     0.937,     0.253,  0.000000,  0.000000,   2,0.974330,-12.936305,'125     ',115.0000,   2
    126, 1,     0.000,     0.000,  0.000000,  0.000000,   2,0.966220,-8.307204,'126     ',115.0000,   2
    127, 1,     0.000,     0.000,  0.000000,  0.000000,   2,0.989680,-12.834105,'127     ',230.0000,   2
    128, 1,     0.000,     0.000,  0.000000,  0.000000,   2,0.997100,-10.355204,'128     ',230.0000,   2
    129, 1,     0.000,     0.000,  0.000000,  0.000000,   2,0.995440,-9.562104,'129     ',230.0000,   2
    130, 1,     0.000,     0.000,  0.000000,  0.000000,   2,1.014920, 1.642601,'130     ',230.0000,   2
    131, 1,     0.000,     0.000,  0.000000,  0.000000,   2,0.983470, 2.324801,'131     ',230.0000,   2
    132, 1,     0.000,     0.000,  0.000000,  0.000000,   2,1.001220,-0.235200,'132     ',230.0000,   2
    133, 1,     0.000,     0.000,  0.000000,  0.000000,   2,0.998010,-12.553905,'133     ',230.0000,   2
    134, 1,     0.000,     0.000,  0.000000,  0.000000,   2,1.018690,-11.907704,'134     ',230.0000,   2
    135, 1,     0.000,     0.000,  0.000000,  0.000000,   2,1.019710,-11.947605,'135     ',230.0000,   2
    136, 1,     0.000,     0.000,  0.000000,  0.000000,   2,1.048500,-6.425703,'136     ',230.0000,   2
    137, 1,     0.000,     0.000,  0.000000,  0.000000,   2,1.042880,-12.468204,'137     ',230.0000,   2
    138, 1,    -3.234,     0.306,  0.000000,  0.000000,   2,1.052040,-21.918007,'138     ',230.0000,   2
    139, 1,    -1.625,     0.032,  0.000000,  0.000000,   2,1.012600,-14.282206,'139     ',115.0000,   2
    140, 1,    -0.428,    -0.269,  0.000000,  0.000000,   2,1.041690,-14.166506,'140     ',230.0000,   2
    141, 1,     0.000,     0.000,  0.000000,  0.000000,   2,1.050390,-10.343904,'141     ',230.0000,   2
    142, 1,     0.000,     0.000,  0.000000,  0.000000,   2,1.016720,-12.098004,'142     ',230.0000,   2
    143, 1,     0.018,    -0.521,  0.000000,  0.000000,   2,1.042460,-4.514902,'143     ',230.0000,   2
    144, 1,     0.000,     0.000,  0.000000,  0.000000,   2,1.016490,-6.798203,'144     ',230.0000,   2
    145, 1,     0.000,     0.000,  0.000000,  0.000000,   2,1.009790,-9.395504,'145     ',230.0000,   2
    146, 1,     0.000,     0.000,  0.000000,  0.000000,   2,1.052510,-5.425202,'146     ',230.0000,   2
    147, 1,     0.000,     0.000,  0.000000,  0.000000,   2,1.053250,-1.512001,'147     ',230.0000,   2
    148, 1,     0.000,     0.000,  0.000000,  0.000000,   2,1.058810,-8.386103,'148     ',230.0000,   2
    149, 1,     0.000,     0.000,  0.000000,  0.000000,   2,1.073040,-3.571401,'149     ',230.0000,   2
    150, 1,     0.000,     0.000,  0.000000,  0.000000,   2,0.983990, 2.605101,'150     ',230.0000,   2
    151, 1,     0.000,     0.000,  0.000000,  0.000000,   2,1.001750, 0.299600,'151     ',230.0000,   2
    152, 1,     0.000,     0.000,  0.000000,  0.000000,   2,1.054520, 0.909100,'152     ',230.0000,   2
    153, 1,     0.000,     0.000,  0.000000,  0.000000,   2,1.043710, 1.257501,'153     ',230.0000,   2
    154, 1,    -0.020,   -32.192,  0.000000,  0.000000,   2,0.966450,-11.349605,'154     ',115.0000,   2
    155, 1,     0.000,     0.000,  0.000000,  0.000000,   2,1.016510,-3.179701,'155     ',230.0000,   2
    156, 1,     0.008,    -0.601,  0.000000,  0.000000,   2,0.961750,-4.762602,'156     ',115.0000,   2
    157, 1,     0.000,     0.000,  0.000000,  0.000000,   2,0.933260, 2.201001,'157     ',230.0000,   2
    158, 1,     0.000,     0.000,  0.000000,  0.000000,   2,0.946800, 1.915001,'158     ',230.0000,   2
    159, 1,     0.000,     0.000,  0.000000,  0.000000,   2,0.923690, 6.125902,'159     ',230.0000,   2
    160, 1,     0.000,     0.000,  0.000000,  0.000000,   2,0.963300, 4.084602,'160     ',230.0000,   2
    161, 1,     0.000,     0.000,  0.000000,  0.000000,   2,1.035570,-0.598300,'161     ',230.0000,   2
    162, 1,     0.000,     0.000,  0.000000,  0.000000,   2,0.990060, 8.394704,'162     ',230.0000,   2
    163, 1,     0.000,     0.400,  0.000000,  0.000000,   2,1.037500,-7.745703,'163     ',230.0000,   2
    164, 1,     0.007,   204.508,  0.000000,  0.000000,   2,0.982200,-0.475000,'164     ',230.0000,   2
    165, 1,     0.000,     0.000,  0.000000,  0.000000,   2,0.998580,16.228308,'165     ',230.0000,   2
    166, 1,    -0.007,   102.232,  0.000000,  0.000000,   2,0.995730,20.152008,'166     ',230.0000,   2
    167, 1,     0.000,     0.000,  0.000000,  0.000000,   2,0.965080,-11.998905,'167     ',230.0000,   2
    168, 1,     0.000,     0.000,  0.000000,  0.000000,   2,0.997140,-10.381904,'168     ',230.0000,   2
    169, 1,     0.000,     0.000,  0.000000,  0.000000,   2,0.980740,-11.994405,'169     ',230.0000,   2
    170, 1,     0.000,     0.000,  0.000000,  0.000000,   2,0.928200,-3.488201,'170     ',115.0000,   2
    171, 1,    -2.896,    -0.178,  0.000000,  0.000000,   2,0.981730,-17.055307,'171     ',115.0000,   2
    172, 1,    26.500,     0.000,  0.000000,  0.000000,   2,1.025320,-16.627108,'172     ',115.0000,   2
    173, 1,     0.092,   -51.493,  0.000000,  0.000000,   2,0.985580,-22.617710,'173     ',115.0000,   2
    174, 1,     0.000,     0.000,  0.000000,  0.000000,   2,1.061440,-13.024505,'174     ',115.0000,   2
    175, 1,     0.000,     0.000,  0.000000,  0.000000,   2,0.976780,-16.559706,'175     ',115.0000,   2
    176, 1,     0.000,     0.000,  0.000000,  0.000000,   2,1.051830,-4.624402,'176     ',115.0000,   2
    177, 1,     0.000,     0.000,  0.000000,  0.000000,   2,1.007430,-8.573304,'177     ',115.0000,   2
    178, 1,     0.373,     0.560,  0.000000,  0.000000,   2,0.945900,-15.704006,'178     ',115.0000,   2
    179, 1,     0.000,   -42.708,  0.000000,  0.000000,   2,0.974080,-18.429607,'179     ',115.0000,   2
    180, 1,     0.000,     0.000,  0.000000,  0.000000,   2,0.982690,-12.287305,'180     ',115.0000,   2
    181, 1,    73.400,     0.000,  0.000000,  0.000000,   2,1.046100,-12.982506,'181     ',230.0000,   2
    182, 1,     0.000,     0.000,  0.000000,  0.000000,   2,1.044390,-14.918106,'182     ',230.0000,   2
    183, 1,     0.000,     0.000,  0.000000,  0.000000,   2,0.972430,-2.136501,'183     ',115.0000,   2
    184, 1,     0.000,     0.000,  0.000000,  0.000000,   2,1.037110,-10.715304,'184     ',230.0000,   2
    185, 1,     0.000,     0.000,  0.000000,  0.000000,   2,1.051840,-8.202703,'185     ',230.0000,   2
    186, 1,     0.000,     0.000,  0.000000,  0.000000,   2,1.062340,-9.200704,'186     ',230.0000,   2
    187, 1,    -0.029,     0.684,  0.000000,  0.000000,   2,1.061790,-10.218804,'187     ',230.0000,   2
    188, 1,     0.000,     0.000,  0.000000,  0.000000,   2,1.048150,-12.321806,'188     ',230.0000,   2
    189, 1,     0.000,     0.000,  0.000000,  0.000000,   3,0.996110,-29.219814,'189     ', 66.0000,   3
    190, 1,    -0.131,   166.647,  0.000000,  0.000000,   3,1.055640,-23.993610,'190     ',345.0000,   3
    191, 1,    -1.165,     0.351,  0.000000,  0.000000,   3,1.037670, 8.410502,'191     ',230.0000,   3
    192, 1,    -2.601,    -0.479,  0.000000,  0.000000,   3,0.954270,-14.827106,'192     ',230.0000,   3
    193, 1,     0.000,     0.000,  0.000000,  0.000000,   3,0.988540,-29.470711,'192     ', 66.0000,   3
    194, 1,     0.000,     0.000,  0.000000,  0.000000,   3,1.048900,-22.591108,'194     ',345.0000,   3
    195, 1,     0.000,     0.000,  0.000000,  0.000000,   3,1.035820,-24.167709,'195     ',345.0000,   3
    196, 1,     0.000,     0.000,  0.000000,  0.000000,   3,0.968480,-28.703913,'196     ',115.0000,   3
    197, 1,     0.000,     0.000,  0.000000,  0.000000,   3,0.989660,-27.099911,'197     ',115.0000,   3
    198, 1,     0.000,     0.000,  0.000000,  0.000000,   3,1.013990,-23.959709,'198     ',115.0000,   3
    199, 1,     0.000,     0.000,  0.000000,  0.000000,   3,0.951230,-29.421814,'199     ',115.0000,   3
    200, 1,     0.000,     0.000,  0.000000,  0.000000,   3,0.953440,-29.307810,'200     ',115.0000,   3
    201, 1,     0.000,     0.000,  0.000000,  0.000000,   1,0.968040,-30.889812,'201     ', 66.0000,   1
    202, 1,     0.000,     0.000,  0.000000,  0.000000,   3,0.989580,-28.719612,'202     ', 66.0000,   3
    203, 1,     0.000,     0.000,  0.000000,  0.000000,   3,1.002280,-25.731310,'203     ',115.0000,   3
    204, 1,     0.000,     0.000,  0.000000,  0.000000,   3,0.970870,-29.096310,'204     ', 66.0000,   3
    205, 1,     0.000,    -5.000,  0.000000,  0.000000,   3,0.982740,-29.449312,'205     ', 66.0000,   3
    206, 1,     0.000,     0.000,  0.000000,  0.000000,   3,0.997860,-30.733013,'206     ', 66.0000,   3
    207, 1,   -21.000,   -14.200,  0.000000,  0.000000,   1,1.012540,-30.743313,'207     ', 66.0000,   1
    208, 1,     0.000,     0.000,  0.000000,  0.000000,   3,0.991490,-29.647614,'208     ', 66.0000,   3
    209, 1,     0.000,     0.000,  0.000000,  0.000000,   3,0.998440,-29.031809,'209     ', 66.0000,   3
    210, 1,     0.000,     0.000,  0.000000,  0.000000,   3,0.977550,-27.598812,'210     ',115.0000,   3
    211, 1,     0.000,     0.000,  0.000000,  0.000000,   3,1.000710,-26.699112,'211     ',115.0000,   3
    212, 1,     0.000,     0.000,  0.000000,  0.000000,   3,1.012310,-25.890409,'212     ',138.0000,   3
    213, 1,     0.000,     0.000,  0.000000,  0.000000,   3,1.009560,-15.044606,'213     ', 16.5000,   3
    214, 1,     0.000,     0.000,  0.000000,  0.000000,   3,0.991430,-20.908508,'214     ',138.0000,   3
    215, 1,     0.000,     0.000,  0.000000,  0.000000,   3,0.986390,-23.611509,'215     ',138.0000,   3
    216, 1,     0.000,     0.000,  0.000000,  0.000000,   3,0.975420,-25.909410,'216     ',138.0000,   3
    217, 1,     0.000,     0.000,  0.000000,  0.000000,   3,1.021630,-25.571609,'217     ',138.0000,   3
    218, 1,     0.000,     0.000,  0.000000,  0.000000,   3,1.007740,-25.999811,'218     ',138.0000,   3
...
0 / END OF GENERATOR DATA, BEGIN BRANCH DATA
      1,      5,'1 ',  0.00100,  0.00600,  0.00000,   0.00,   0.00,   0.00,0.00000,000.000, 0.00000, 0.00000, 0.00000, 0.00000, 1
      1,  20001,'1 ',  0.00000,  0.00976,  0.00000, 122.97,   0.00,   0.00,1.000000,0.032000,0.000000,0.000000,00.00000,00.00000, 1
      2,      6,'1 ',  0.00100,  0.00900,  0.00000,   0.00,   0.00,   0.00,0.00000,000.000, 0.00000, 0.00000, 0.00000, 0.00000, 1
      2,      8,'1 ',  0.00600,  0.02700,  0.05400,   0.00,   0.00,   0.00,0.00000,000.000, 0.00000, 0.00000, 0.00000, 0.00000, 1
      2,  20002,'1 ',  0.00000,  0.01725,  0.00000,  69.57,   0.00,   0.00,1.000000,0.065000,0.000000,0.000000,00.00000,00.00000, 1
      3,      1,'1 ',  0.00000,  0.05200,  0.00000,   0.00,   0.00,   0.00,0.947000,0.000000,0.000000,0.000000,00.00000,00.00000, 1
      3,      2,'1 ',  0.00000,  0.05200,  0.00000,   0.00,   0.00,   0.00,0.956000,0.000000,0.000000,0.000000,00.00000,00.00000, 1
      3,      4,'1 ',  0.00000,  0.00500,  0.00000,   0.00,   0.00,   0.00,0.972000,0.000000,0.000000,0.000000,00.00000,00.00000, 1
      3,      7,'1 ', -0.00000,  0.00300,  0.00000,   0.00,   0.00,   0.00,0.00000,000.000, 0.00000, 0.00000, 0.00000, 0.00000, 1
      3,     19,'1 ',  0.00800,  0.06900,  0.13900,   0.00,   0.00,   0.00,0.00000,000.000, 0.00000, 0.00000, 0.00000, 0.00000, 1
      3,    150,'1 ',  0.00100,  0.00700,  0.00000,   0.00,   0.00,   0.00,0.00000,000.000, 0.00000, 0.00000, 0.00000, 0.00000, 1
      4,     16,'1 ',  0.00200,  0.01900,  1.12700,   0.00,   0.00,   0.00,0.00000,000.000, 0.00000, 0.00000, 0.00000, 0.00000, 1
      5,      9,'1 ',  0.00600,  0.02900,  0.01800,   0.00,   0.00,   0.00,0.00000,000.000, 0.00000, 0.00000, 0.00000, 0.00000, 1
      5,  20005,'1 ',  0.00000,  0.00266,  0.00000, 451.41,   0.00,   0.00,1.000000,0.010000,0.000000,0.000000,00.00000,00.00000, 1
      6,  20006,'1 ',  0.00000,  0.00789,  0.00000, 152.17,   0.00,   0.00,1.000000,0.051000,0.000000,0.000000,00.00000,00.00000, 1
      7,      5,'1 ',  0.00000,  0.03900,  0.00000,   0.00,   0.00,   0.00,0.948000,0.000000,0.000000,0.000000,00.00000,00.00000, 1
      7,      6,'1 ',  0.00000,  0.03900,  0.00000,   0.00,   0.00,   0.00,0.960000,0.000000,0.000000,0.000000,00.00000,00.00000, 1
      7,     12,'1 ',  0.00100,  0.00900,  0.07000,   0.00,   0.00,   0.00,0.00000,000.000, 0.00000, 0.00000, 0.00000, 0.00000, 1
      7,    131,'1 ',  0.00100,  0.00700,  0.01400,   0.00,   0.00,   0.00,0.00000,000.000, 0.00000, 0.00000, 0.00000, 0.00000, 1
      8,     11,'1 ',  0.01300,  0.05950,  0.03300,   0.00,   0.00,   0.00,0.00000,000.000, 0.00000, 0.00000, 0.00000, 0.00000, 1
      8,     14,'1 ',  0.01300,  0.04200,  0.08100,   0.00,   0.00,   0.00,0.00000,000.000, 0.00000, 0.00000, 0.00000, 0.00000, 1
      8,  20008,'1 ',  0.00000,  0.01676,  0.00000,  71.60,   0.00,   0.00,1.000000,-0.028000,0.000000,0.000000,00.00000,00.00000, 1
      9,     11,'1 ',  0.00600,  0.02700,  0.01300,   0.00,   0.00,   0.00,0.00000,000.000, 0.00000, 0.00000, 0.00000, 0.00000, 1
      9,  20009,'1 ',  0.00000,  0.00951,  0.00000, 126.23,   0.00,   0.00,1.000000,-0.022000,0.000000,0.000000,00.00000,00.00000, 1
     10,     11,'1 ',  0.00000,  0.08900,  0.00000,   0.00,   0.00,   0.00,1.046000,0.000000,0.000000,0.000000,00.00000,00.00000, 1
     10,  20010,'1 ',  0.00000,  0.00659,  0.00000, 181.96,   0.00,   0.00,1.000000,-0.048000,0.000000,0.000000,00.00000,00.00000, 1
     11,     13,'1 ',  0.00800,  0.03400,  0.01800,   0.00,   0.00,   0.00,0.00000,000.000, 0.00000, 0.00000, 0.00000, 0.00000, 1
     11,  20011,'1 ',  0.00000,  0.01168,  0.00000, 102.74,   0.00,   0.00,1.000000,-0.028000,0.000000,0.000000,00.00000,00.00000, 1
     12,     10,'1 ',  0.00000,  0.05300,  0.00000,   0.00,   0.00,   0.00,0.986000,0.000000,0.000000,0.000000,00.00000,00.00000, 1
     12,     21,'1 ',  0.00200,  0.01500,  0.11800,   0.00,   0.00,   0.00,0.00000,000.000, 0.00000, 0.00000, 0.00000, 0.00000, 1
     13,     20,'1 ',  0.00600,  0.03400,  0.01600,   0.00,   0.00,   0.00,0.00000,000.000, 0.00000, 0.00000, 0.00000, 0.00000, 1
     13,  20013,'1 ',  0.00000,  0.01699,  0.00000,  70.63,   0.00,   0.00,1.000000,-0.081000,0.000000,0.000000,00.00000,00.00000, 1
     14,     15,'1 ',  0.01400,  0.04200,  0.09700,   0.00,   0.00,   0.00,0.00000,000.000, 0.00000, 0.00000, 0.00000, 0.00000, 1
     14,  20014,'1 ',  0.00000,  0.00585,  0.00000, 205.06,   0.00,   0.00,1.000000,-0.151000,0.000000,0.000000,00.00000,00.00000, 1
     15,     17,'1 ',  0.01940,  0.03110,  0.00000,   0.00,   0.00,   0.00,0.956000,0.000000,0.000000,0.000000,00.00000,00.00000, 1
     15,     37,'1 ',  0.06500,  0.24800,  0.12100,   0.00,   0.00,   0.00,0.00000,000.000, 0.00000, 0.00000, 0.00000, 0.00000, 1
     15,     89,'1 ',  0.09900,  0.24800,  0.03500,   0.00,   0.00,   0.00,0.00000,000.000, 0.00000, 0.00000, 0.00000, 0.00000, 1
     15,     90,'1 ',  0.09600,  0.36300,  0.04800,   0.00,   0.00,   0.00,0.00000,000.000, 0.00000, 0.00000, 0.00000, 0.00000, 1
     15,  20015,'1 ',  0.00000,  0.00777,  0.00000, 154.52,   0.00,   0.00,1.000000,-0.215000,0.000000,0.000000,00.00000,00.00000, 1
     16,     15,'1 ',  0.00100,  0.03800,  0.00000,   0.00,   0.00,   0.00,0.972000,0.000000,0.000000,0.000000,00.00000,00.00000, 1
     16,     42,'1 ',  0.00200,  0.02200,  1.28000,   0.00,   0.00,   0.00,0.00000,000.000, 0.00000, 0.00000, 0.00000, 0.00000, 1
     17,  20017,'1 ',  0.00000,  0.00166,  0.00000, 723.11,   0.00,   0.00,1.000000,-0.294000,0.000000,0.000000,00.00000,00.00000, 1
     19,     21,'1 ',  0.00200,  0.01800,  0.03600,   0.00,   0.00,   0.00,0.00000,000.000, 0.00000, 0.00000, 0.00000, 0.00000, 1
     19,     87,'1 ',  0.01300,  0.08000,  0.15100,   0.00,   0.00,   0.00,0.00000,000.000, 0.00000, 0.00000, 0.00000, 0.00000, 1
     20,     22,'1 ',  0.01600,  0.03300,  0.01500,   0.00,   0.00,   0.00,0.00000,000.000, 0.00000, 0.00000, 0.00000, 0.00000, 1
     20,     27,'1 ',  0.06900,  0.18600,  0.09800,   0.00,   0.00,   0.00,0.00000,000.000, 0.00000, 0.00000, 0.00000, 0.00000, 1
     20,  20020,'1 ',  0.00000,  0.00165,  0.00000, 728.38,   0.00,   0.00,1.000000,-0.115000,0.000000,0.000000,00.00000,00.00000, 1
     21,     20,'1 ',  0.00000,  0.01400,  0.00000,   0.00,   0.00,   0.00,0.952000,0.000000,0.000000,0.000000,00.00000,00.00000, 1
     21,     24,'1 ',  0.00400,  0.03400,  0.28000,   0.00,   0.00,   0.00,0.00000,000.000, 0.00000, 0.00000, 0.00000, 0.00000, 1
     21,  20021,'1 ',  0.00000,  0.01299,  0.00000,  92.41,   0.00,   0.00,1.000000,-0.043000,0.000000,0.000000,00.00000,00.00000, 1
     22,     23,'1 ',  0.05200,  0.11100,  0.05000,   0.00,   0.00,   0.00,0.00000,000.000, 0.00000, 0.00000, 0.00000, 0.00000, 1
     22,  20022,'1 ',  0.00000,  0.01188,  0.00000, 101.04,   0.00,   0.00,1.000000,-0.106000,0.000000,0.000000,00.00000,00.00000, 1
     23,     25,'1 ',  0.01900,  0.03900,  0.01800,   0.00,   0.00,   0.00,0.00000,000.000, 0.00000, 0.00000, 0.00000, 0.00000, 1
     23,  20023,'1 ',  0.00000,  0.04518,  0.00000,  26.56,   0.00,   0.00,1.000000,-0.003000,0.000000,0.000000,00.00000,00.00000, 1
     24,     23,'1 ',  0.00000,  0.06400,  0.00000,   0.00,   0.00,   0.00,0.944000,0.000000,0.000000,0.000000,00.00000,00.00000, 1
     24,    319,'1 ',  0.00700,  0.06800,  0.13400,   0.00,   0.00,   0.00,0.00000,000.000, 0.00000, 0.00000, 0.00000, 0.00000, 1
     25,     26,'1 ',  0.03600,  0.07100,  0.03400,   0.00,   0.00,   0.00,0.00000,000.000, 0.00000, 0.00000, 0.00000, 0.00000, 1
     25,  20025,'1 ',  0.00000,  0.02147,  0.00000,  55.89,   0.00,   0.00,1.000000,-0.047000,0.000000,0.000000,00.00000,00.00000, 1
     26,     27,'1 ',  0.04500,  0.12000,  0.06500,   0.00,   0.00,   0.00,0.00000,000.000, 0.00000, 0.00000, 0.00000, 0.00000, 1
     26,    320,'1 ',  0.04300,  0.13000,  0.01400,   0.00,   0.00,   0.00,0.00000,000.000, 0.00000, 0.00000, 0.00000, 0.00000, 1
     26,  20026,'1 ',  0.00000,  0.03400,  0.00000,  35.29,   0.00,   0.00,1.000000,-0.102000,0.000000,0.000000,00.00000,00.00000, 1
     27,  20027,'1 ',  0.00000,  0.01424,  0.00000,  84.26,   0.00,   0.00,1.000000,-0.158000,0.000000,0.000000,00.00000,00.00000, 1
     33,     34,'1 ', -0.00000,  0.06300,  0.00000,   0.00,   0.00,   0.00,0.00000,000.000, 0.00000, 0.00000, 0.00000, 0.00000, 1
     33,     38,'1 ',  0.00250,  0.01200,  0.01300,   0.00,   0.00,   0.00,0.00000,000.000, 0.00000, 0.00000, 0.00000, 0.00000, 1
     33,     40,'1 ',  0.00600,  0.02900,  0.02000,   0.00,   0.00,   0.00,0.00000,000.000, 0.00000, 0.00000, 0.00000, 0.00000, 1
     33,     41,'1 ',  0.00700,  0.04300,  0.02600,   0.00,   0.00,   0.00,0.00000,000.000, 0.00000, 0.00000, 0.00000, 0.00000, 1
     33,  20033,'1 ',  0.00000,  0.01807,  0.00000,  66.39,   0.00,   0.00,1.000000,-0.263000,0.000000,0.000000,00.00000,00.00000, 1
     34,     42,'1 ',  0.00100,  0.00800,  0.04200,   0.00,   0.00,   0.00,0.00000,000.000, 0.00000, 0.00000, 0.00000, 0.00000, 1
     35,     72,'1 ',  0.01200,  0.06000,  0.00800,   0.00,   0.00,   0.00,0.00000,000.000, 0.00000, 0.00000, 0.00000, 0.00000, 1
     35,     76,'1 ',  0.00600,  0.01400,  0.00200,   0.00,   0.00,   0.00,0.00000,000.000, 0.00000, 0.00000, 0.00000, 0.00000, 1
     35,     77,'1 ',  0.01000,  0.02900,  0.00300,   0.00,   0.00,   0.00,0.00000,000.000, 0.00000, 0.00000, 0.00000, 0.00000, 1
     36,     35,'1 ',  0.00000,  0.04700,  0.00000,   0.00,   0.00,   0.00,1.010000,0.000000,0.000000,0.000000,00.00000,00.00000, 1
     36,     88,'1 ',  0.00400,  0.02700,  0.04300,   0.00,   0.00,   0.00,0.00000,000.000, 0.00000, 0.00000, 0.00000, 0.00000, 1
     37,     38,'1 ',  0.00800,  0.04700,  0.00800,   0.00,   0.00,   0.00,0.00000,000.000, 0.00000, 0.00000, 0.00000, 0.00000, 1
     37,     40,'1 ',  0.02200,  0.06400,  0.00700,   0.00,   0.00,   0.00,0.00000,000.000, 0.00000, 0.00000, 0.00000, 0.00000, 1
     37,     41,'1 ',  0.01000,  0.03600,  0.02000,   0.00,   0.00,   0.00,0.00000,000.000, 0.00000, 0.00000, 0.00000, 0.00000, 1
     37,     49,'1 ',  0.01700,  0.08100,  0.04800,   0.00,   0.00,   0.00,0.00000,000.000, 0.00000, 0.00000, 0.00000, 0.00000, 1
     37,     89,'1 ',  0.10200,  0.25400,  0.03300,   0.00,   0.00,   0.00,0.00000,000.000, 0.00000, 0.00000, 0.00000, 0.00000, 1
     37,     90,'1 ',  0.04700,  0.12700,  0.01600,   0.00,   0.00,   0.00,0.00000,000.000, 0.00000, 0.00000, 0.00000, 0.00000, 1
     37,   9001,'1 ',  0.00006,  0.00046,  0.00000,   0.00,   0.00,  75.00,1.003670,0.000000,0.000000,0.000000,00.00000,00.00000, 1
     37,  20037,'1 ',  0.00000,  0.01101,  0.00000, 108.99,   0.00,   0.00,1.000000,-0.243000,0.000000,0.000000,00.00000,00.00000, 1
     38,     41,'1 ',  0.00800,  0.03700,  0.02000,   0.00,   0.00,   0.00,0.00000,000.000, 0.00000, 0.00000, 0.00000, 0.00000, 1
     38,     43,'1 ',  0.03200,  0.08700,  0.04000,   0.00,   0.00,   0.00,0.00000,000.000, 0.00000, 0.00000, 0.00000, 0.00000, 1
     38,  20038,'1 ',  0.00000,  0.00641,  0.00000, 187.25,   0.00,   0.00,1.000000,-0.272000,0.000000,0.000000,00.00000,00.00000, 1
     39,     42,'1 ',  0.00060,  0.00640,  0.40400,   0.00,   0.00,   0.00,0.00000,000.000, 0.00000, 0.00000, 0.00000, 0.00000, 1
     40,     48,'1 ',  0.02600,  0.15400,  0.02200,   0.00,   0.00,   0.00,0.00000,000.000, 0.00000, 0.00000, 0.00000, 0.00000, 1
     40,  20040,'1 ',  0.00000,  0.01978,  0.00000,  60.68,   0.00,   0.00,1.000000,-0.276000,0.000000,0.000000,00.00000,00.00000, 1
     41,     42,'1 ', -0.00000,  0.02900,  0.00000,   0.00,   0.00,   0.00,0.00000,000.000, 0.00000, 0.00000, 0.00000, 0.00000, 1
     41,     49,'1 ',  0.06500,  0.19100,  0.02000,   0.00,   0.00,   0.00,0.00000,000.000, 0.00000, 0.00000, 0.00000, 0.00000, 1
     41,     51,'1 ',  0.03100,  0.08900,  0.03600,   0.00,   0.00,   0.00,0.00000,000.000, 0.00000, 0.00000, 0.00000, 0.00000, 1
     42,     46,'1 ',  0.00200,  0.01400,  0.80600,   0.00,   0.00,   0.00,0.00000,000.000, 0.00000, 0.00000, 0.00000, 0.00000, 1
     43,     44,'1 ',  0.02600,  0.07200,  0.03500,   0.00,   0.00,   0.00,0.00000,000.000, 0.00000, 0.00000, 0.00000, 0.00000, 1
     43,     48,'1 ',  0.09500,  0.26200,  0.03200,   0.00,   0.00,   0.00,0.00000,000.000, 0.00000, 0.00000, 0.00000, 0.00000, 1
     43,     53,'1 ',  0.01300,  0.03900,  0.01600,   0.00,   0.00,   0.00,0.00000,000.000, 0.00000, 0.00000, 0.00000, 0.00000, 1
     43,  20043,'1 ',  0.00000,  0.02498,  0.00000,  48.03,   0.00,   0.00,1.000000,-0.356000,0.000000,0.000000,00.00000,00.00000, 1
     44,     47,'1 ',  0.02700,  0.08400,  0.03900,   0.00,   0.00,   0.00,0.00000,000.000, 0.00000, 0.00000, 0.00000, 0.00000, 1
     44,     54,'1 ',  0.02800,  0.08400,  0.03700,   0.00,   0.00,   0.00,0.00000,000.000, 0.00000, 0.00000, 0.00000, 0.00000, 1
     44,  20044,'1 ',  0.00000,  0.00507,  0.00000, 236.57,   0.00,   0.00,1.000000,-0.374000,0.000000,0.000000,00.00000,00.00000, 1
     45,     44,'1 ',  0.00000,  0.02000,  0.00000,   0.00,   0.00,   0.00,1.008000,0.000000,0.000000,0.000000,00.00000,00.00000, 1
     45,     46,'1 ',  0.00000,  0.02100,  0.00000,   0.00,   0.00,   0.00,1.000000,0.000000,0.000000,0.000000,00.00000,00.00000, 1
     45,     60,'1 ',  0.00700,  0.04100,  0.31200,   0.00,   0.00,   0.00,0.00000,000.000, 0.00000, 0.00000, 0.00000, 0.00000, 1
     45,     74,'1 ',  0.00900,  0.05400,  0.41100,   0.00,   0.00,   0.00,0.00000,000.000, 0.00000, 0.00000, 0.00000, 0.00000, 1
     46,     81,'1 ',  0.00500,  0.04200,  0.69000,   0.00,   0.00,   0.00,0.00000,000.000, 0.00000, 0.00000, 0.00000, 0.00000, 1
     47,     73,'1 ',  0.05200,  0.14500,  0.07300,   0.00,   0.00,   0.00,0.00000,000.000, 0.00000, 0.00000, 0.00000, 0.00000, 1
     47,    113,'1 ',  0.04300,  0.11800,  0.01300,   0.00,   0.00,   0.00,0.00000,000.000, 0.00000, 0.00000, 0.00000, 0.00000, 1
     47,  20047,'1 ',  0.00000,  0.01690,  0.00000,  71.03,   0.00,   0.00,1.000000,-0.474000,0.000000,0.000000,00.00000,00.00000, 1
     48,    107,'1 ',  0.02500,  0.06200,  0.00700,   0.00,   0.00,   0.00,0.00000,000.000, 0.00000, 0.00000, 0.00000, 0.00000, 1
     48,  20048,'1 ',  0.00000,  0.02213,  0.00000,  54.23,   0.00,   0.00,1.000000,-0.340000,0.000000,0.000000,00.00000,00.00000, 1
     49,     51,'1 ',  0.03100,  0.09400,  0.04300,   0.00,   0.00,   0.00,0.00000,000.000, 0.00000, 0.00000, 0.00000, 0.00000, 1
     49,  20049,'1 ',  0.00000,  0.01046,  0.00000, 114.72,   0.00,   0.00,1.000000,-0.060000,0.000000,0.000000,00.00000,00.00000, 1
     51,     52,'1 ',  0.03700,  0.10900,  0.04900,   0.00,   0.00,   0.00,0.00000,000.000, 0.00000, 0.00000, 0.00000, 0.00000, 1
     52,     55,'1 ',  0.02700,  0.08000,  0.03600,   0.00,   0.00,   0.00,0.00000,000.000, 0.00000, 0.00000, 0.00000, 0.00000, 1
     52,  20052,'1 ',  0.00000,  0.01490,  0.00000,  80.54,   0.00,   0.00,1.000000,-0.261000,0.000000,0.000000,00.00000,00.00000, 1
     53,     54,'1 ',  0.02500,  0.07300,  0.03500,   0.00,   0.00,   0.00,0.00000,000.000, 0.00000, 0.00000, 0.00000, 0.00000, 1
     53,  20053,'1 ',  0.00000,  0.01448,  0.00000,  82.88,   0.00,   0.00,1.000000,-0.372000,0.000000,0.000000,00.00000,00.00000, 1
     54,     55,'1 ',  0.03500,  0.10300,  0.04700,   0.00,   0.00,   0.00,0.00000,000.000, 0.00000, 0.00000, 0.00000, 0.00000, 1
     54,  20054,'1 ',  0.00000,  0.09950,  0.00000,  12.06,   0.00,   0.00,1.000000,-0.350000,0.000000,0.000000,00.00000,00.00000, 1
     55,     57,'1 ',  0.06500,  0.16900,  0.08200,   0.00,   0.00,   0.00,0.00000,000.000, 0.00000, 0.00000, 0.00000, 0.00000, 1
     55,  20055,'1 ',  0.00000,  0.04138,  0.00000,  29.00,   0.00,   0.00,1.000000,-0.279000,0.000000,0.000000,00.00000,00.00000, 1
     57,     58,'1 ',  0.04600,  0.08000,  0.03600,   0.00,   0.00,   0.00,0.00000,000.000, 0.00000, 0.00000, 0.00000, 0.00000, 1
     57,     63,'1 ',  0.15900,  0.53700,  0.07100,   0.00,   0.00,   0.00,0.00000,000.000, 0.00000, 0.00000, 0.00000, 0.00000, 1
     57,  20057,'1 ',  0.00000,  0.01000,  0.00000, 120.02,   0.00,   0.00,1.000000,-0.231000,0.000000,0.000000,00.00000,00.00000, 1
     58,     59,'1 ',  0.00900,  0.02600,  0.00500,   0.00,   0.00,   0.00,0.00000,000.000, 0.00000, 0.00000, 0.00000, 0.00000, 1
     58,  20058,'1 ',  0.00000,  0.07125,  0.00000,  16.84,   0.00,   0.00,1.000000,-0.207000,0.000000,0.000000,00.00000,00.00000, 1
     59,     61,'1 ',  0.00200,  0.01300,  0.01500,   0.00,   0.00,   0.00,0.00000,000.000, 0.00000, 0.00000, 0.00000, 0.00000, 1
     59,  20059,'1 ',  0.00000,  0.00413,  0.00000, 290.89,   0.00,   0.00,1.000000,-0.198000,0.000000,0.000000,00.00000,00.00000, 1
     60,     62,'1 ',  0.00900,  0.06500,  0.48500,   0.00,   0.00,   0.00,0.00000,000.000, 0.00000, 0.00000, 0.00000, 0.00000, 1
     61,  20061,'1 ',  0.00000,  0.00396,  0.00000, 302.70,   0.00,   0.00,1.000000,-0.168000,0.000000,0.000000,00.00000,00.00000, 1
     62,     61,'1 ',  0.00000,  0.05900,  0.00000,   0.00,   0.00,   0.00,0.976000,0.000000,0.000000,0.000000,00.00000,00.00000, 1
     62,     64,'1 ',  0.01600,  0.10500,  0.20300,   0.00,   0.00,   0.00,0.00000,000.000, 0.00000, 0.00000, 0.00000, 0.00000, 1
     62,    144,'1 ',  0.00100,  0.00700,  0.01300,   0.00,   0.00,   0.00,0.00000,000.000, 0.00000, 0.00000, 0.00000, 0.00000, 1
     63,     64,'1 ',  0.00000,  0.03800,  0.00000,   0.00,   0.00,   0.00,1.016000,0.000000,0.000000,0.000000,00.00000,00.00000, 1
     63,    526,'1 ',  0.02650,  0.17200,  0.02600,   0.00,   0.00,   0.00,0.00000,000.000, 0.00000, 0.00000, 0.00000, 0.00000, 1
     63,  20063,'1 ',  0.00000,  0.01313,  0.00000,  91.39,   0.00,   0.00,1.000000,-0.417000,0.000000,0.000000,00.00000,00.00000, 1
     69,     79,'1 ',  0.05100,  0.15700,  0.02300,   0.00,   0.00,   0.00,0.00000,000.000, 0.00000, 0.00000, 0.00000, 0.00000, 1
     69,    211,'1 ',  0.05100,  0.23200,  0.02800,   0.00,   0.00,   0.00,0.00000,000.000, 0.00000, 0.00000, 0.00000, 0.00000, 1
     70,     71,'1 ',  0.03200,  0.10000,  0.06200,   0.00,   0.00,   0.00,0.00000,000.000, 0.00000, 0.00000, 0.00000, 0.00000, 1
     70,    528,'1 ',  0.02000,  0.12340,  0.02800,   0.00,   0.00,   0.00,0.00000,000.000, 0.00000, 0.00000, 0.00000, 0.00000, 1
     70,  20070,'1 ',  0.00000,  0.01682,  0.00000,  71.36,   0.00,   0.00,1.000000,-0.684000,0.000000,0.000000,00.00000,00.00000, 1
     71,     72,'1 ',  0.03600,  0.13100,  0.06800,   0.00,   0.00,   0.00,0.00000,000.000, 0.00000, 0.00000, 0.00000, 0.00000, 1
     71,     73,'1 ',  0.03400,  0.09900,  0.04700,   0.00,   0.00,   0.00,0.00000,000.000, 0.00000, 0.00000, 0.00000, 0.00000, 1
     71,  20071,'1 ',  0.00000,  0.00819,  0.00000, 146.48,   0.00,   0.00,1.000000,-0.591000,0.000000,0.000000,00.00000,00.00000, 1
     72,     77,'1 ',  0.01800,  0.08700,  0.01100,   0.00,   0.00,   0.00,0.00000,000.000, 0.00000, 0.00000, 0.00000, 0.00000, 1
     72,    531,'1 ',  0.02560,  0.19300,  0.00000,   0.00,   0.00,   0.00,0.00000,000.000, 0.00000, 0.00000, 0.00000, 0.00000, 1
     72,  20072,'1 ',  0.00000,  0.01664,  0.00000,  72.10,   0.00,   0.00,1.000000,-0.549000,0.000000,0.000000,00.00000,00.00000, 1
     73,     74,'1 ',  0.00000,  0.02440,  0.00000,   0.00,   0.00,   0.00,1.000000,0.000000,0.000000,0.000000,00.00000,00.00000, 1
     73,     76,'1 ',  0.02100,  0.05700,  0.03000,   0.00,   0.00,   0.00,0.00000,000.000, 0.00000, 0.00000, 0.00000, 0.00000, 1
     73,     79,'1 ',  0.01800,  0.05200,  0.01800,   0.00,   0.00,   0.00,0.00000,000.000, 0.00000, 0.00000, 0.00000, 0.00000, 1
     73,  20073,'1 ',  0.00000,  0.00426,  0.00000, 281.98,   0.00,   0.00,1.000000,-0.519000,0.000000,0.000000,00.00000,00.00000, 1
     74,     88,'1 ',  0.00400,  0.02700,  0.05000,   0.00,   0.00,   0.00,0.00000,000.000, 0.00000, 0.00000, 0.00000, 0.00000, 1
     74,    562,'1 ',  0.02860,  0.20130,  0.37900,   0.00,   0.00,   0.00,0.00000,000.000, 0.00000, 0.00000, 0.00000, 0.00000, 1
     76,     77,'1 ',  0.01600,  0.04300,  0.00400,   0.00,   0.00,   0.00,0.00000,000.000, 0.00000, 0.00000, 0.00000, 0.00000, 1
     76,  20076,'1 ',  0.00000,  0.00428,  0.00000, 280.69,   0.00,   0.00,1.000000,-0.533000,0.000000,0.000000,00.00000,00.00000, 1
     77,     78,'1 ',  0.00100,  0.00600,  0.00700,   0.00,   0.00,   0.00,0.00000,000.000, 0.00000, 0.00000, 0.00000, 0.00000, 1
     77,     80,'1 ',  0.01400,  0.07000,  0.03800,   0.00,   0.00,   0.00,0.00000,000.000, 0.00000, 0.00000, 0.00000, 0.00000, 1
     77,    552,'1 ',  0.08910,  0.26760,  0.02900,   0.00,   0.00,   0.00,0.00000,000.000, 0.00000, 0.00000, 0.00000, 0.00000, 1
     77,    609,'1 ',  0.07820,  0.21270,  0.02200,   0.00,   0.00,   0.00,0.00000,000.000, 0.00000, 0.00000, 0.00000, 0.00000, 1
     77,  20077,'1 ',  0.00000,  0.01264,  0.00000,  94.94,   0.00,   0.00,1.000000,-0.505000,0.000000,0.000000,00.00000,00.00000, 1
     78,     79,'1 ',  0.00600,  0.02200,  0.01100,   0.00,   0.00,   0.00,0.00000,000.000, 0.00000, 0.00000, 0.00000, 0.00000, 1
     78,     84,'1 ', -0.00000,  0.03600,  0.00000,   0.00,   0.00,   0.00,0.00000,000.000, 0.00000, 0.00000, 0.00000, 0.00000, 1
     79,    211,'1 ',  0.09900,  0.37500,  0.05100,   0.00,   0.00,   0.00,0.00000,000.000, 0.00000, 0.00000, 0.00000, 0.00000, 1
     79,  20079,'1 ',  0.00000,  0.02000,  0.00000,  60.00,   0.00,   0.00,1.000000,-0.505000,0.000000,0.000000,00.00000,00.00000, 1
     80,    211,'1 ',  0.02200,  0.10700,  0.05800,   0.00,   0.00,   0.00,0.00000,000.000, 0.00000, 0.00000, 0.00000, 0.00000, 1
     80,  20080,'1 ',  0.00000,  0.03465,  0.00000,  34.63,   0.00,   0.00,1.000000,-0.505000,0.000000,0.000000,00.00000,00.00000, 1
     81,     88,'1 ',  0.00000,  0.02000,  0.00000,   0.00,   0.00,   0.00,1.000000,0.000000,0.000000,0.000000,00.00000,00.00000, 1
     81,    194,'1 ',  0.00350,  0.03300,  0.53000,   0.00,   0.00,   0.00,0.00000,000.000, 0.00000, 0.00000, 0.00000, 0.00000, 1
     81,    195,'1 ',  0.00350,  0.03300,  0.53000,   0.00,   0.00,   0.00,0.00000,000.000, 0.00000, 0.00000, 0.00000, 0.00000, 1
     84,  20084,'1 ',  0.00000,  0.02550,  0.00000,  47.06,   0.00,   0.00,1.000000,-0.369000,0.000000,0.000000,00.00000,00.00000, 1
     85,     86,'1 ',  0.00800,  0.06400,  0.12800,   0.00,   0.00,   0.00,0.00000,000.000, 0.00000, 0.00000, 0.00000, 0.00000, 1
     85,     99,'1 ',  0.00000,  0.04800,  0.00000,   0.00,   0.00,   0.00,1.000000,0.000000,0.000000,0.000000,00.00000,00.00000, 1
     86,     87,'1 ',  0.01200,  0.09300,  0.18300,   0.00,   0.00,   0.00,0.00000,000.000, 0.00000, 0.00000, 0.00000, 0.00000, 1
     86,    102,'1 ',  0.00000,  0.04800,  0.00000,   0.00,   0.00,   0.00,1.000000,0.000000,0.000000,0.000000,00.00000,00.00000, 1
     86,    323,'1 ',  0.00600,  0.04800,  0.09200,   0.00,   0.00,   0.00,0.00000,000.000, 0.00000, 0.00000, 0.00000, 0.00000, 1
     87,     94,'1 ',  0.00000,  0.04600,  0.00000,   0.00,   0.00,   0.00,1.014000,0.000000,0.000000,0.000000,00.00000,00.00000, 1
     89,     91,'1 ',  0.04700,  0.11900,  0.01400,   0.00,   0.00,   0.00,0.00000,000.000, 0.00000, 0.00000, 0.00000, 0.00000, 1
     90,     92,'1 ',  0.03200,  0.17400,  0.02400,   0.00,   0.00,   0.00,0.00000,000.000, 0.00000, 0.00000, 0.00000, 0.00000, 1
     91,     94,'1 ',  0.10000,  0.25300,  0.03100,   0.00,   0.00,   0.00,0.00000,000.000, 0.00000, 0.00000, 0.00000, 0.00000, 1
     91,     97,'1 ',  0.02200,  0.07700,  0.03900,   0.00,   0.00,   0.00,0.00000,000.000, 0.00000, 0.00000, 0.00000, 0.00000, 1
     92,    103,'1 ',  0.01900,  0.14400,  0.01700,   0.00,   0.00,   0.00,0.00000,000.000, 0.00000, 0.00000, 0.00000, 0.00000, 1
     92,    105,'1 ',  0.01700,  0.09200,  0.01200,   0.00,   0.00,   0.00,0.00000,000.000, 0.00000, 0.00000, 0.00000, 0.00000, 1
     94,     97,'1 ',  0.27800,  0.42700,  0.04300,   0.00,   0.00,   0.00,0.00000,000.000, 0.00000, 0.00000, 0.00000, 0.00000, 1
     97,    100,'1 ',  0.02200,  0.05300,  0.00700,   0.00,   0.00,   0.00,0.00000,000.000, 0.00000, 0.00000, 0.00000, 0.00000, 1
     97,    102,'1 ',  0.03800,  0.09200,  0.01200,   0.00,   0.00,   0.00,0.00000,000.000, 0.00000, 0.00000, 0.00000, 0.00000, 1
     97,    103,'1 ',  0.04800,  0.12200,  0.01500,   0.00,   0.00,   0.00,0.00000,000.000, 0.00000, 0.00000, 0.00000, 0.00000, 1
     98,    100,'1 ',  0.02400,  0.06400,  0.00700,   0.00,   0.00,   0.00,0.00000,000.000, 0.00000, 0.00000, 0.00000, 0.00000, 1
     98,    102,'1 ',  0.03400,  0.12100,  0.01500,   0.00,   0.00,   0.00,0.00000,000.000, 0.00000, 0.00000, 0.00000, 0.00000, 1
     99,    107,'1 ',  0.05300,  0.13500,  0.01700,   0.00,   0.00,   0.00,0.00000,000.000, 0.00000, 0.00000, 0.00000, 0.00000, 1
     99,    108,'1 ',  0.00200,  0.00400,  0.00200,   0.00,   0.00,   0.00,0.00000,000.000, 0.00000, 0.00000, 0.00000, 0.00000, 1
     99,    109,'1 ',  0.04500,  0.35400,  0.04400,   0.00,   0.00,   0.00,0.00000,000.000, 0.00000, 0.00000, 0.00000, 0.00000, 1
     99,    110,'1 ',  0.05000,  0.17400,  0.02200,   0.00,   0.00,   0.00,0.00000,000.000, 0.00000, 0.00000, 0.00000, 0.00000, 1
    100,    102,'1 ',  0.01600,  0.03800,  0.00400,   0.00,   0.00,   0.00,0.00000,000.000, 0.00000, 0.00000, 0.00000, 0.00000, 1
    102,    104,'1 ',  0.04300,  0.06400,  0.02700,   0.00,   0.00,   0.00,0.00000,000.000, 0.00000, 0.00000, 0.00000, 0.00000, 1
    103,    105,'1 ',  0.01900,  0.06200,  0.00800,   0.00,   0.00,   0.00,0.00000,000.000, 0.00000, 0.00000, 0.00000, 0.00000, 1
    104,    108,'1 ',  0.07600,  0.13000,  0.04400,   0.00,   0.00,   0.00,0.00000,000.000, 0.00000, 0.00000, 0.00000, 0.00000, 1
    104,    322,'1 ',  0.04400,  0.12400,  0.01500,   0.00,   0.00,   0.00,0.00000,000.000, 0.00000, 0.00000, 0.00000, 0.00000, 1
    105,    107,'1 ',  0.01200,  0.08800,  0.01100,   0.00,   0.00,   0.00,0.00000,000.000, 0.00000, 0.00000, 0.00000, 0.00000, 1
    105,    110,'1 ',  0.15700,  0.40000,  0.04700,   0.00,   0.00,   0.00,0.00000,000.000, 0.00000, 0.00000, 0.00000, 0.00000, 1
    108,    324,'1 ',  0.07400,  0.20800,  0.02600,   0.00,   0.00,   0.00,0.00000,000.000, 0.00000, 0.00000, 0.00000, 0.00000, 1
    109,    110,'1 ',  0.07000,  0.18400,  0.02100,   0.00,   0.00,   0.00,0.00000,000.000, 0.00000, 0.00000, 0.00000, 0.00000, 1
    109,    113,'1 ',  0.10000,  0.27400,  0.03100,   0.00,   0.00,   0.00,0.00000,000.000, 0.00000, 0.00000, 0.00000, 0.00000, 1
...
0 / END OF BRANCH DATA, BEGIN TRANSFORMER ADJUSTMENT DATA
      3,      2,'1 ',     2,1.100000,0.900000,1.100000,0.900000,0.002000,  0, 1,0.00000, 0.00000
      3,      4,'1 ',     4,1.100000,0.900000,1.100000,0.900000,0.002000,  0, 1,0.00000, 0.00000
      7,      5,'1 ',     5,1.100000,0.900000,1.100000,0.900000,0.002000,  0, 1,0.00000, 0.00000
      7,      6,'1 ',     6,1.100000,0.900000,1.100000,0.900000,0.002000,  0, 1,0.00000, 0.00000
     10,     11,'1 ',    11,1.100000,0.900000,1.100000,0.900000,0.002000,  0, 1,0.00000, 0.00000
     12,     10,'1 ',    10,1.100000,0.900000,1.100000,0.900000,0.002000,  0, 1,0.00000, 0.00000
     15,     17,'1 ',    17,1.100000,0.900000,1.100000,0.900000,0.002000,  0, 1,0.00000, 0.00000
     16,     15,'1 ',    15,1.100000,0.900000,1.100000,0.900000,0.002000,  0, 1,0.00000, 0.00000
     21,     20,'1 ',    20,1.100000,0.900000,1.100000,0.900000,0.002000,  0, 1,0.00000, 0.00000
     24,     23,'1 ',    23,1.100000,0.900000,1.100000,0.900000,0.002000,  0, 1,0.00000, 0.00000
     36,     35,'1 ',    35,1.100000,0.900000,1.100000,0.900000,0.002000,  0, 1,0.00000, 0.00000
     45,     44,'1 ',    44,1.100000,0.900000,1.100000,0.900000,0.002000,  0, 1,0.00000, 0.00000
     45,     46,'1 ',    46,1.100000,0.900000,1.100000,0.900000,0.002000,  0, 1,0.00000, 0.00000
     62,     61,'1 ',    61,1.100000,0.900000,1.100000,0.900000,0.002000,  0, 1,0.00000, 0.00000
     63,     64,'1 ',    64,1.100000,0.900000,1.100000,0.900000,0.002000,  0, 1,0.00000, 0.00000
     73,     74,'1 ',    74,1.100000,0.900000,1.100000,0.900000,0.002000,  0, 1,0.00000, 0.00000
     81,     88,'1 ',    88,1.100000,0.900000,1.100000,0.900000,0.002000,  0, 1,0.00000, 0.00000
     85,     99,'1 ',    99,1.100000,0.900000,1.100000,0.900000,0.002000,  0, 1,0.00000, 0.00000
     86,    102,'1 ',   102,1.100000,0.900000,1.100000,0.900000,0.002000,  0, 1,0.00000, 0.00000
     87,     94,'1 ',    94,1.100000,0.900000,1.100000,0.900000,0.002000,  0, 1,0.00000, 0.00000
    114,    207,'1 ',   207,1.100000,0.900000,1.100000,0.900000,0.002000,  0, 1,0.00000, 0.00000
    116,    124,'1 ',   124,1.100000,0.900000,1.100000,0.900000,0.002000,  0, 1,0.00000, 0.00000
    121,    115,'1 ',   115,1.100000,0.900000,1.100000,0.900000,0.002000,  0, 1,0.00000, 0.00000
    122,    157,'1 ',   157,1.100000,0.900000,1.100000,0.900000,0.002000,  0, 1,0.00000, 0.00000
    130,    131,'1 ',   131,1.100000,0.900000,1.100000,0.900000,0.002000,  0, 1,0.00000, 0.00000
    130,    150,'1 ',   150,1.100000,0.900000,1.100000,0.900000,0.002000,  0, 1,0.00000, 0.00000
    132,    170,'1 ',   170,1.100000,0.900000,1.100000,0.900000,0.002000,  0, 1,0.00000, 0.00000
    141,    174,'1 ',   174,1.100000,0.900000,1.100000,0.900000,0.002000,  0, 1,0.00000, 0.00000
    142,    175,'1 ',   175,1.100000,0.900000,1.100000,0.900000,0.002000,  0, 1,0.00000, 0.00000
    143,    144,'1 ',   144,1.100000,0.900000,1.100000,0.900000,0.002000,  0, 1,0.00000, 0.00000
    143,    148,'1 ',   148,1.100000,0.900000,1.100000,0.900000,0.002000,  0, 1,0.00000, 0.00000
    145,    180,'1 ',   180,1.100000,0.900000,1.100000,0.900000,0.002000,  0, 1,0.00000, 0.00000
    151,    170,'1 ',   170,1.100000,0.900000,1.100000,0.900000,0.002000,  0, 1,0.00000, 0.00000
    153,    183,'1 ',   183,1.100000,0.900000,1.100000,0.900000,0.002000,  0, 1,0.00000, 0.00000
    155,    156,'1 ',   156,1.100000,0.900000,1.100000,0.900000,0.002000,  0, 1,0.00000, 0.00000
    159,    117,'1 ',   117,1.100000,0.900000,1.100000,0.900000,0.002000,  0, 1,0.00000, 0.00000
    160,    124,'1 ',   124,1.100000,0.900000,1.100000,0.900000,0.002000,  0, 1,0.00000, 0.00000
    163,    137,'1 ',   137,1.100000,0.900000,1.100000,0.900000,0.002000,  0, 1,0.00000, 0.00000
    164,    155,'1 ',   155,1.100000,0.900000,1.100000,0.900000,0.002000,  0, 1,0.00000, 0.00000
    182,    139,'1 ',   139,1.100000,0.900000,1.100000,0.900000,0.002000,  0, 1,0.00000, 0.00000
    189,    210,'1 ',   210,1.100000,0.900000,1.100000,0.900000,0.002000,  0, 1,0.00000, 0.00000
    193,    196,'1 ',   196,1.100000,0.900000,1.100000,0.900000,0.002000,  0, 1,0.00000, 0.00000
    195,    212,'1 ',   212,1.100000,0.900000,1.100000,0.900000,0.002000,  0, 1,0.00000, 0.00000
    196,   2040,'1 ',   196,1.100000,-15.000000,85.000000,80.000000,0.298150,  0, 1,0.00000, 0.00000
    200,    248,'1 ',   248,1.100000,0.900000,1.100000,0.900000,0.002000,  0, 1,0.00000, 0.00000
    201,     69,'2 ',    69,1.100000,0.900000,1.100000,0.900000,0.002000,  0, 1,0.00000, 0.00000
    202,    211,'1 ',   211,1.100000,0.900000,1.100000,0.900000,0.002000,  0, 1,0.00000, 0.00000
    204,   2040,'1 ',   196,1.100000,0.900000,1.100000,0.900000,0.002000,  0, 1,0.00000, 0.00000
    209,    198,'1 ',   198,1.100000,0.900000,1.100000,0.900000,0.002000,  0, 1,0.00000, 0.00000
    211,    212,'1 ',   212,1.100000,0.900000,1.100000,0.900000,0.002000,  0, 1,0.00000, 0.00000
    218,    219,'1 ',   219,1.100000,0.900000,1.100000,0.900000,0.002000,  0, 1,0.00000, 0.00000
    223,    224,'1 ',   224,1.100000,0.900000,1.100000,0.900000,0.002000,  0, 1,0.00000, 0.00000
    229,    230,'1 ',   230,1.100000,0.900000,1.100000,0.900000,0.002000,  0, 1,0.00000, 0.00000
    234,    236,'1 ',   236,1.100000,0.900000,1.100000,0.900000,0.002000,  0, 1,0.00000, 0.00000
    238,    239,'1 ',   239,1.100000,0.900000,1.100000,0.900000,0.002000,  0, 1,0.00000, 0.00000
   9001,   9006,'1 ',  9006,1.147800,0.939100,1.010000,0.990000,0.004170,  0, 1,0.00000, 0.00000
   9001,   9012,'1 ',  9012,1.147800,0.939100,1.010000,0.990000,0.004170,  0, 1,0.00000, 0.00000
   9005,   9051,'1 ',  9051,1.147800,0.939100,1.010000,0.990000,0.004170,  0, 1,0.00000, 0.00000
   9005,   9052,'1 ',  9052,1.147800,0.939100,1.010000,0.990000,0.004170,  0, 1,0.00000, 0.00000
   9005,   9053,'1 ',  9053,1.147800,0.939100,1.010000,0.990000,0.004170,  0, 1,0.00000, 0.00000
0 / END OF TRANSFORMER ADJUSTMENT DATA, BEGIN AREA DATA
0 / END OF AREA DATA, BEGIN TWO-TERMINAL DC DATA
0 / END OF TWO-TERMINAL DC DATA, BEGIN SWITCHED SHUNT DATA
0 / END OF SWITCHED SHUNT DATA, BEGIN IMPEDANCE CORRECTION DATA
0 / END OF IMPEDANCE CORRECTION DATA, BEGIN MULTI-TERMINAL DC DATA
0 / END OF MULTI-TERMINAL DC DATA, BEGIN MULTI-SECTION LINE DATA
0 / END OF MULTI-SECTION LINE DATA, BEGIN ZONE DATA
    1,'1           '
    2,'2           '
    3,'3           '
    9,'9           '
0 / END OF ZONE DATA, BEGIN INTER-AREA TRANSFER DATA
0 / END OF INTER-AREA TRANSFER DATA, BEGIN OWNER DATA
0 / END OF OWNER DATA, BEGIN FACTS DEVICE DATA
